# ***************************************************************************************
# *  Copyright: National ICT Australia,  2007, 2008					*
# *  Developed at the Networks and Pervasive Computing program				*
# *  Author(s): Athanassios Boulis, Dimosthenis Pediaditakis				*
# *  This file is distributed under the terms in the attached LICENSE file.		*
# *  If you do not find this file, copies can be found by writing to:			*
# *											*
# *      NICTA, Locked Bag 9013, Alexandria, NSW 1435, Australia			*
# *      Attention:  License Inquiry.							*
# *											*
# **************************************************************************************/


[General]
# The list of ned files to be dynamically loaded, 
# make sure it points to $(CASTALIA_HOME)/nedfiles.lst 
preload-ned-files = *.ned @../../../../nedfiles.lst

#always include the general and RNGs parameter file
include ../../../Parameter_Include_Files/general_and_RNGs.ini

# how long do you want your simulation to run?
sim-time-limit = 100s

output-vector-file = Castalia-statistics.vec
output-scalar-file = Castalia-statistics.sca


[Cmdenv]
# always include the omnet_cmdenv_reporting parameter file
include ../../../Parameter_Include_Files/omnet_cmdenv_reporting.ini



[Parameters]
# The filename that (potential) debug output will be written to
SN.debugInfoFilename = "Castalia-Debug.txt"


# COMPOUND MODULE: SN (the network)

include ../../../Parameter_Include_Files/BackwardCompatibility.ini

# define deployment details
#SN.field_x = 40					# meters
#SN.field_y = 40					# meters
#SN.numNodes = 9
#SN.deploymentType = 1				# 0 means a uniform random deployment inside the network's X,Y boundaries
						# 1 means a grid deployment
						# 2 means randomized grid deployment (i.e. grid+ noise)
						# any other number means that the user must specify manually the locations of each one of the nodes


# or you could opt for a manual deployment like so:
SN.field_x = 40					# meters
SN.field_y = 50					# meters
SN.numNodes = 9
SN.deploymentType = 4	
include node_locations.ini

# how many physical processes do you have?
SN.numPhysicalProcesses = 1



# Choose a parameters file for module SN.physicalProcess[0] or define your own
include ../../../Parameter_Include_Files/physicalProcess_0_node6_asssignedValue40.ini


# Choose a parameters file for module SN.node[*].resourceMgr or define your own
include ../../../Parameter_Include_Files/resourceMgr_2AAbatteries.ini

# Choose a parameters file for module SN.node[*].nodeSensorDevMgr or define your own
include ../../../Parameter_Include_Files/nodeSensorDevMgr_Temperature.ini




# Choose a parameters file for module SN.wirelessChannel or define your own
#include ../../../Parameter_Include_Files/WChannel/No_Interference/WChannel_Ideal.ini
#include ../../../Parameter_Include_Files/WChannel/No_Interference/WChannel_noInterference_yesSigma_yesAllBidirectional.ini
#include ../../../Parameter_Include_Files/WChannel/No_Interference/WChannel_noInterference_yesSigma_noAllBidirectional.ini
#include ../../../Parameter_Include_Files/WChannel/Additive_Interference_Model/WChannel_yesInterference_noSigma_yesAllBidirectional.ini
#include ../../../Parameter_Include_Files/WChannel/Additive_Interference_Model/WChannel_yesInterference_yesSigma_yesAllBidirectional.ini
include ../../../Parameter_Include_Files/WChannel/Additive_Interference_Model/WChannel_Realistic.ini

# Choose a parameters file for module SN.node[*].networkInterface.Radio or define your own
#include ../../../Parameter_Include_Files/Radio/TelosB_CC2420/radio_CC2420_IDEALmodulation.ini
include ../../../Parameter_Include_Files/Radio/TelosB_CC2420/radio_CC2420.ini




# Choose a parameters file for module SN.node[*].networkInterface.MAC or define your own
include ../../../Parameter_Include_Files/MAC_Bypass.ini
#include ../../../Parameter_Include_Files/MAC_Tunable.ini
#include ../../../Parameter_Include_Files/MAC_just_carrierSense.ini

# Choose a parameters file for module SN.node[*].networkInterface.MAC or define your own
include ../../../Parameter_Include_Files/Routing_bypass.ini




# ----------------------------------------------------------------
# Define the application module you want to use and its parameters
# ----------------------------------------------------------------
SN.node[*].appModuleName = "valuePropagation_ApplicationModule"
SN.node[*].nodeApplication.applicationID = "ValProp"
SN.node[*].nodeApplication.printDebugInfo = false
SN.node[*].nodeApplication.priority = 1

# App_GenericDataPacket has the following real-world 
# (non-simulation-specific) fields:
#	string source; ----------> 2bytes
#	string destination; -----> 2bytes
#	int seqNumber; ----------> 2bytes
#	string applicationID; ---> 2bytes
# Application header overhead: Total bytes = 4*2 = 8 (|*|)

# Additionally, the valuePropagation_DataPacket (sub-class
# of App_GenericDataPacket) has some extra fields:
#    double data; -----------> 2bytes // we assume that 1 byte for the integral part and 1byte for the fractional part are enough
# Data Payload = 2bytes

# Total bytes (|*|) 8 + 2 = 10 (constant application packet size)

SN.node[*].nodeApplication.maxAppPacketSize = 30    # in bytes
SN.node[*].nodeApplication.packetHeaderOverhead = 8 # in bytes
SN.node[*].nodeApplication.constantDataPayload = 2  #in bytes






# Define your Runs. You can have none (in that case Castalia will run once with
# the parameter values defined above) or you can have several Runs (in that
# case you can give different values to selected parameters in each Run).

[Run 1]
description = "Run 1"
seed-0-mt = 10				# the seeds for each of the RNGs
seed-1-mt = 111
seed-2-mt = 211
seed-3-mt = 40
seed-4-mt = 50
seed-5-mt = 60
seed-6-mt = 70
seed-7-mt = 80
seed-8-mt = 90
SN.node[*].networkInterface.Radio.txPowerLevelUsed = 0
SN.wirelessChannel.printDebugInfo = true
SN.node[*].networkInterface.Radio.printDebugInfo = true


[Run 2]
description = "Run 2"
seed-0-mt = 10				# the seeds for each of the RNGs
seed-1-mt = 222
seed-2-mt = 322
seed-3-mt = 40
seed-4-mt = 50
seed-5-mt = 60
seed-6-mt = 70
seed-7-mt = 80
seed-8-mt = 90
SN.node[*].networkInterface.Radio.txPowerLevelUsed = 0
SN.wirelessChannel.printDebugInfo = true
SN.node[*].networkInterface.Radio.printDebugInfo = true

[Run 3]
description = "Run 3"
seed-0-mt = 10				# the seeds for each of the RNGs
seed-1-mt = 333
seed-2-mt = 433
seed-3-mt = 40
seed-4-mt = 50
seed-5-mt = 60
seed-6-mt = 70
seed-7-mt = 80
seed-8-mt = 90
SN.node[*].networkInterface.Radio.txPowerLevelUsed = 0
SN.wirelessChannel.printDebugInfo = true
SN.node[*].networkInterface.Radio.printDebugInfo = true


[Run 4]
description = "Run 4"
seed-0-mt = 10				# the seeds for each of the RNGs
seed-1-mt = 444
seed-2-mt = 544
seed-3-mt = 40
seed-4-mt = 50
seed-5-mt = 60
seed-6-mt = 70
seed-7-mt = 80
seed-8-mt = 90
SN.node[*].networkInterface.Radio.txPowerLevelUsed = 0
SN.wirelessChannel.printDebugInfo = true
SN.node[*].networkInterface.Radio.printDebugInfo = true


[Run 5]
description = "Run 5"
seed-0-mt = 10				# the seeds for each of the RNGs
seed-1-mt = 555
seed-2-mt = 655
seed-3-mt = 40
seed-4-mt = 50
seed-5-mt = 60
seed-6-mt = 70
seed-7-mt = 80
seed-8-mt = 90
SN.node[*].networkInterface.Radio.txPowerLevelUsed = 0
SN.wirelessChannel.printDebugInfo = true
SN.node[*].networkInterface.Radio.printDebugInfo = true


[Run 6]
description = "Run 6"
seed-0-mt = 10				# the seeds for each of the RNGs
seed-1-mt = 666
seed-2-mt = 766
seed-3-mt = 40
seed-4-mt = 50
seed-5-mt = 60
seed-6-mt = 70
seed-7-mt = 80
seed-8-mt = 90
SN.node[*].networkInterface.Radio.txPowerLevelUsed = 0
SN.wirelessChannel.printDebugInfo = true
SN.node[*].networkInterface.Radio.printDebugInfo = true


[Run 7]
description = "Run 7"
seed-0-mt = 10				# the seeds for each of the RNGs
seed-1-mt = 777
seed-2-mt = 877
seed-3-mt = 40
seed-4-mt = 50
seed-5-mt = 60
seed-6-mt = 70
seed-7-mt = 80
seed-8-mt = 90
SN.node[*].networkInterface.Radio.txPowerLevelUsed = 0
SN.wirelessChannel.printDebugInfo = true
SN.node[*].networkInterface.Radio.printDebugInfo = true


[Run 8]
description = "Run 8"
seed-0-mt = 10				# the seeds for each of the RNGs
seed-1-mt = 888
seed-2-mt = 988
seed-3-mt = 40
seed-4-mt = 50
seed-5-mt = 60
seed-6-mt = 70
seed-7-mt = 80
seed-8-mt = 90
SN.node[*].networkInterface.Radio.txPowerLevelUsed = 0
SN.wirelessChannel.printDebugInfo = true
SN.node[*].networkInterface.Radio.printDebugInfo = true


[Run 9]
description = "Run 9"
seed-0-mt = 10				# the seeds for each of the RNGs
seed-1-mt = 999
seed-2-mt = 1099
seed-3-mt = 40
seed-4-mt = 50
seed-5-mt = 60
seed-6-mt = 70
seed-7-mt = 80
seed-8-mt = 90
SN.node[*].networkInterface.Radio.txPowerLevelUsed = 0
SN.wirelessChannel.printDebugInfo = true
SN.node[*].networkInterface.Radio.printDebugInfo = true


[Run 10]
description = "Run 10"
seed-0-mt = 10				# the seeds for each of the RNGs
seed-1-mt = 101010
seed-2-mt = 111010
seed-3-mt = 40
seed-4-mt = 50
seed-5-mt = 60
seed-6-mt = 70
seed-7-mt = 80
seed-8-mt = 90
SN.node[*].networkInterface.Radio.txPowerLevelUsed = 0
SN.wirelessChannel.printDebugInfo = true
SN.node[*].networkInterface.Radio.printDebugInfo = true



[Run 11]
description = "Run 11"
seed-0-mt = 10				# the seeds for each of the RNGs
seed-1-mt = 111111
seed-2-mt = 121111
seed-3-mt = 40
seed-4-mt = 50
seed-5-mt = 60
seed-6-mt = 70
seed-7-mt = 80
seed-8-mt = 90
SN.node[*].networkInterface.Radio.txPowerLevelUsed = 0
SN.wirelessChannel.printDebugInfo = true
SN.node[*].networkInterface.Radio.printDebugInfo = true


[Run 12]
description = "Run 12"
seed-0-mt = 10				# the seeds for each of the RNGs
seed-1-mt = 121212
seed-2-mt = 131212
seed-3-mt = 40
seed-4-mt = 50
seed-5-mt = 60
seed-6-mt = 70
seed-7-mt = 80
seed-8-mt = 90
SN.node[*].networkInterface.Radio.txPowerLevelUsed = 0
SN.wirelessChannel.printDebugInfo = true
SN.node[*].networkInterface.Radio.printDebugInfo = true


[Run 13]
description = "Run 13"
seed-0-mt = 10				# the seeds for each of the RNGs
seed-1-mt = 131313
seed-2-mt = 141313
seed-3-mt = 40
seed-4-mt = 50
seed-5-mt = 60
seed-6-mt = 70
seed-7-mt = 80
seed-8-mt = 90
SN.node[*].networkInterface.Radio.txPowerLevelUsed = 0
SN.wirelessChannel.printDebugInfo = true
SN.node[*].networkInterface.Radio.printDebugInfo = true


[Run 14]
description = "Run 14"
seed-0-mt = 10				# the seeds for each of the RNGs
seed-1-mt = 141414
seed-2-mt = 151414
seed-3-mt = 40
seed-4-mt = 50
seed-5-mt = 60
seed-6-mt = 70
seed-7-mt = 80
seed-8-mt = 90
SN.node[*].networkInterface.Radio.txPowerLevelUsed = 0
SN.wirelessChannel.printDebugInfo = true
SN.node[*].networkInterface.Radio.printDebugInfo = true


[Run 15]
description = "Run 15"
seed-0-mt = 10				# the seeds for each of the RNGs
seed-1-mt = 151515
seed-2-mt = 161515
seed-3-mt = 40
seed-4-mt = 50
seed-5-mt = 60
seed-6-mt = 70
seed-7-mt = 80
seed-8-mt = 90
SN.node[*].networkInterface.Radio.txPowerLevelUsed = 0
SN.wirelessChannel.printDebugInfo = true
SN.node[*].networkInterface.Radio.printDebugInfo = true


[Run 16]
description = "Run 16"
seed-0-mt = 10				# the seeds for each of the RNGs
seed-1-mt = 161616
seed-2-mt = 171616
seed-3-mt = 40
seed-4-mt = 50
seed-5-mt = 60
seed-6-mt = 70
seed-7-mt = 80
seed-8-mt = 90
SN.node[*].networkInterface.Radio.txPowerLevelUsed = 0
SN.wirelessChannel.printDebugInfo = true
SN.node[*].networkInterface.Radio.printDebugInfo = true


[Run 17]
description = "Run 17"
seed-0-mt = 10				# the seeds for each of the RNGs
seed-1-mt = 171717
seed-2-mt = 181717
seed-3-mt = 40
seed-4-mt = 50
seed-5-mt = 60
seed-6-mt = 70
seed-7-mt = 80
seed-8-mt = 90
SN.node[*].networkInterface.Radio.txPowerLevelUsed = 0
SN.wirelessChannel.printDebugInfo = true
SN.node[*].networkInterface.Radio.printDebugInfo = true


[Run 18]
description = "Run 18"
seed-0-mt = 10				# the seeds for each of the RNGs
seed-1-mt = 181818
seed-2-mt = 191818
seed-3-mt = 40
seed-4-mt = 50
seed-5-mt = 60
seed-6-mt = 70
seed-7-mt = 80
seed-8-mt = 90
SN.node[*].networkInterface.Radio.txPowerLevelUsed = 0
SN.wirelessChannel.printDebugInfo = true
SN.node[*].networkInterface.Radio.printDebugInfo = true


[Run 19]
description = "Run 19"
seed-0-mt = 10				# the seeds for each of the RNGs
seed-1-mt = 191919
seed-2-mt = 201919
seed-3-mt = 40
seed-4-mt = 50
seed-5-mt = 60
seed-6-mt = 70
seed-7-mt = 80
seed-8-mt = 90
SN.node[*].networkInterface.Radio.txPowerLevelUsed = 0
SN.wirelessChannel.printDebugInfo = true
SN.node[*].networkInterface.Radio.printDebugInfo = true


[Run 20]
description = "Run 20"
seed-0-mt = 10				# the seeds for each of the RNGs
seed-1-mt = 202020
seed-2-mt = 212020
seed-3-mt = 40
seed-4-mt = 50
seed-5-mt = 60
seed-6-mt = 70
seed-7-mt = 80
seed-8-mt = 90
SN.node[*].networkInterface.Radio.txPowerLevelUsed = 0
SN.wirelessChannel.printDebugInfo = true
SN.node[*].networkInterface.Radio.printDebugInfo = true


[Run 21]
description = "Run 21"
seed-0-mt = 10				# the seeds for each of the RNGs
seed-1-mt = 212121
seed-2-mt = 222121
seed-3-mt = 40
seed-4-mt = 50
seed-5-mt = 60
seed-6-mt = 70
seed-7-mt = 80
seed-8-mt = 90
SN.node[*].networkInterface.Radio.txPowerLevelUsed = 0
SN.wirelessChannel.printDebugInfo = true
SN.node[*].networkInterface.Radio.printDebugInfo = true


[Run 22]
description = "Run 22"
seed-0-mt = 10				# the seeds for each of the RNGs
seed-1-mt = 222222
seed-2-mt = 232222
seed-3-mt = 40
seed-4-mt = 50
seed-5-mt = 60
seed-6-mt = 70
seed-7-mt = 80
seed-8-mt = 90
SN.node[*].networkInterface.Radio.txPowerLevelUsed = 0
SN.wirelessChannel.printDebugInfo = true
SN.node[*].networkInterface.Radio.printDebugInfo = true


[Run 23]
description = "Run 23"
seed-0-mt = 10				# the seeds for each of the RNGs
seed-1-mt = 233223
seed-2-mt = 242323
seed-3-mt = 40
seed-4-mt = 50
seed-5-mt = 60
seed-6-mt = 70
seed-7-mt = 80
seed-8-mt = 90
SN.node[*].networkInterface.Radio.txPowerLevelUsed = 0
SN.wirelessChannel.printDebugInfo = true
SN.node[*].networkInterface.Radio.printDebugInfo = true


[Run 24]
description = "Run 24"
seed-0-mt = 10				# the seeds for each of the RNGs
seed-1-mt = 242424
seed-2-mt = 252424
seed-3-mt = 40
seed-4-mt = 50
seed-5-mt = 60
seed-6-mt = 70
seed-7-mt = 80
seed-8-mt = 90
SN.node[*].networkInterface.Radio.txPowerLevelUsed = 0
SN.wirelessChannel.printDebugInfo = true
SN.node[*].networkInterface.Radio.printDebugInfo = true


[Run 25]
description = "Run 25"
seed-0-mt = 10				# the seeds for each of the RNGs
seed-1-mt = 252525
seed-2-mt = 262525
seed-3-mt = 40
seed-4-mt = 50
seed-5-mt = 60
seed-6-mt = 70
seed-7-mt = 80
seed-8-mt = 90
SN.node[*].networkInterface.Radio.txPowerLevelUsed = 0
SN.wirelessChannel.printDebugInfo = true
SN.node[*].networkInterface.Radio.printDebugInfo = true


[Run 26]
description = "Run 26"
seed-0-mt = 10				# the seeds for each of the RNGs
seed-1-mt = 262626
seed-2-mt = 272626
seed-3-mt = 40
seed-4-mt = 50
seed-5-mt = 60
seed-6-mt = 70
seed-7-mt = 80
seed-8-mt = 90
SN.node[*].networkInterface.Radio.txPowerLevelUsed = 0
SN.wirelessChannel.printDebugInfo = true
SN.node[*].networkInterface.Radio.printDebugInfo = true


[Run 27]
description = "Run 27"
seed-0-mt = 10				# the seeds for each of the RNGs
seed-1-mt = 272727
seed-2-mt = 282727
seed-3-mt = 40
seed-4-mt = 50
seed-5-mt = 60
seed-6-mt = 70
seed-7-mt = 80
seed-8-mt = 90
SN.node[*].networkInterface.Radio.txPowerLevelUsed = 0
SN.wirelessChannel.printDebugInfo = true
SN.node[*].networkInterface.Radio.printDebugInfo = true


[Run 28]
description = "Run 28"
seed-0-mt = 10				# the seeds for each of the RNGs
seed-1-mt = 282828
seed-2-mt = 292828
seed-3-mt = 40
seed-4-mt = 50
seed-5-mt = 60
seed-6-mt = 70
seed-7-mt = 80
seed-8-mt = 90
SN.node[*].networkInterface.Radio.txPowerLevelUsed = 0
SN.wirelessChannel.printDebugInfo = true
SN.node[*].networkInterface.Radio.printDebugInfo = true


[Run 29]
description = "Run 29"
seed-0-mt = 10				# the seeds for each of the RNGs
seed-1-mt = 292992
seed-2-mt = 302929
seed-3-mt = 40
seed-4-mt = 50
seed-5-mt = 60
seed-6-mt = 70
seed-7-mt = 80
seed-8-mt = 90
SN.node[*].networkInterface.Radio.txPowerLevelUsed = 0
SN.wirelessChannel.printDebugInfo = true
SN.node[*].networkInterface.Radio.printDebugInfo = true


[Run 30]
description = "Run 30"
seed-0-mt = 10				# the seeds for each of the RNGs
seed-1-mt = 303030
seed-2-mt = 313030
seed-3-mt = 40
seed-4-mt = 50
seed-5-mt = 60
seed-6-mt = 70
seed-7-mt = 80
seed-8-mt = 90
SN.node[*].networkInterface.Radio.txPowerLevelUsed = 0
SN.wirelessChannel.printDebugInfo = true
SN.node[*].networkInterface.Radio.printDebugInfo = true

[Run 31]
description = "Run 31"
seed-0-mt = 10				# the seeds for each of the RNGs
seed-1-mt = 313131
seed-2-mt = 323131
seed-3-mt = 40
seed-4-mt = 50
seed-5-mt = 60
seed-6-mt = 70
seed-7-mt = 80
seed-8-mt = 90
SN.node[*].networkInterface.Radio.txPowerLevelUsed = 0
SN.wirelessChannel.printDebugInfo = true
SN.node[*].networkInterface.Radio.printDebugInfo = true

[Run 32]
description = "Run 32"
seed-0-mt = 10				# the seeds for each of the RNGs
seed-1-mt = 323232
seed-2-mt = 333232
seed-3-mt = 40
seed-4-mt = 50
seed-5-mt = 60
seed-6-mt = 70
seed-7-mt = 80
seed-8-mt = 90
SN.node[*].networkInterface.Radio.txPowerLevelUsed = 0
SN.wirelessChannel.printDebugInfo = true
SN.node[*].networkInterface.Radio.printDebugInfo = true

[Run 33]
description = "Run 33"
seed-0-mt = 10				# the seeds for each of the RNGs
seed-1-mt = 333333
seed-2-mt = 343333
seed-3-mt = 40
seed-4-mt = 50
seed-5-mt = 60
seed-6-mt = 70
seed-7-mt = 80
seed-8-mt = 90
SN.node[*].networkInterface.Radio.txPowerLevelUsed = 0
SN.wirelessChannel.printDebugInfo = true
SN.node[*].networkInterface.Radio.printDebugInfo = true

[Run 34]
description = "Run 34"
seed-0-mt = 10				# the seeds for each of the RNGs
seed-1-mt = 343434
seed-2-mt = 353434
seed-3-mt = 40
seed-4-mt = 50
seed-5-mt = 60
seed-6-mt = 70
seed-7-mt = 80
seed-8-mt = 90
SN.node[*].networkInterface.Radio.txPowerLevelUsed = 0
SN.wirelessChannel.printDebugInfo = true
SN.node[*].networkInterface.Radio.printDebugInfo = true

[Run 35]
description = "Run 35"
seed-0-mt = 10				# the seeds for each of the RNGs
seed-1-mt = 353535
seed-2-mt = 363535
seed-3-mt = 40
seed-4-mt = 50
seed-5-mt = 60
seed-6-mt = 70
seed-7-mt = 80
seed-8-mt = 90
SN.node[*].networkInterface.Radio.txPowerLevelUsed = 0
SN.wirelessChannel.printDebugInfo = true
SN.node[*].networkInterface.Radio.printDebugInfo = true

[Run 36]
description = "Run 36"
seed-0-mt = 10				# the seeds for each of the RNGs
seed-1-mt = 363636
seed-2-mt = 373636
seed-3-mt = 40
seed-4-mt = 50
seed-5-mt = 60
seed-6-mt = 70
seed-7-mt = 80
seed-8-mt = 90
SN.node[*].networkInterface.Radio.txPowerLevelUsed = 0
SN.wirelessChannel.printDebugInfo = true
SN.node[*].networkInterface.Radio.printDebugInfo = true

[Run 37]
description = "Run 37"
seed-0-mt = 10				# the seeds for each of the RNGs
seed-1-mt = 373737
seed-2-mt = 383737
seed-3-mt = 40
seed-4-mt = 50
seed-5-mt = 60
seed-6-mt = 70
seed-7-mt = 80
seed-8-mt = 90
SN.node[*].networkInterface.Radio.txPowerLevelUsed = 0
SN.wirelessChannel.printDebugInfo = true
SN.node[*].networkInterface.Radio.printDebugInfo = true

[Run 38]
description = "Run 38"
seed-0-mt = 10				# the seeds for each of the RNGs
seed-1-mt = 383838
seed-2-mt = 393838
seed-3-mt = 40
seed-4-mt = 50
seed-5-mt = 60
seed-6-mt = 70
seed-7-mt = 80
seed-8-mt = 90
SN.node[*].networkInterface.Radio.txPowerLevelUsed = 0
SN.wirelessChannel.printDebugInfo = true
SN.node[*].networkInterface.Radio.printDebugInfo = true

[Run 39]
description = "Run 39"
seed-0-mt = 10				# the seeds for each of the RNGs
seed-1-mt = 393939
seed-2-mt = 403939
seed-3-mt = 40
seed-4-mt = 50
seed-5-mt = 60
seed-6-mt = 70
seed-7-mt = 80
seed-8-mt = 90
SN.node[*].networkInterface.Radio.txPowerLevelUsed = 0
SN.wirelessChannel.printDebugInfo = true
SN.node[*].networkInterface.Radio.printDebugInfo = true

[Run 40]
description = "Run 40"
seed-0-mt = 10				# the seeds for each of the RNGs
seed-1-mt = 404040
seed-2-mt = 414040
seed-3-mt = 40
seed-4-mt = 50
seed-5-mt = 60
seed-6-mt = 70
seed-7-mt = 80
seed-8-mt = 90
SN.node[*].networkInterface.Radio.txPowerLevelUsed = 0
SN.wirelessChannel.printDebugInfo = true
SN.node[*].networkInterface.Radio.printDebugInfo = true

[Run 41]
description = "Run 41"
seed-0-mt = 10				# the seeds for each of the RNGs
seed-1-mt = 414141
seed-2-mt = 424141
seed-3-mt = 40
seed-4-mt = 50
seed-5-mt = 60
seed-6-mt = 70
seed-7-mt = 80
seed-8-mt = 90
SN.node[*].networkInterface.Radio.txPowerLevelUsed = 0
SN.wirelessChannel.printDebugInfo = true
SN.node[*].networkInterface.Radio.printDebugInfo = true

[Run 42]
description = "Run 42"
seed-0-mt = 10				# the seeds for each of the RNGs
seed-1-mt = 424242
seed-2-mt = 434242
seed-3-mt = 40
seed-4-mt = 50
seed-5-mt = 60
seed-6-mt = 70
seed-7-mt = 80
seed-8-mt = 90
SN.node[*].networkInterface.Radio.txPowerLevelUsed = 0
SN.wirelessChannel.printDebugInfo = true
SN.node[*].networkInterface.Radio.printDebugInfo = true

[Run 43]
description = "Run 43"
seed-0-mt = 10				# the seeds for each of the RNGs
seed-1-mt = 434343
seed-2-mt = 444343
seed-3-mt = 40
seed-4-mt = 50
seed-5-mt = 60
seed-6-mt = 70
seed-7-mt = 80
seed-8-mt = 90
SN.node[*].networkInterface.Radio.txPowerLevelUsed = 0
SN.wirelessChannel.printDebugInfo = true
SN.node[*].networkInterface.Radio.printDebugInfo = true

[Run 44]
description = "Run 44"
seed-0-mt = 10				# the seeds for each of the RNGs
seed-1-mt = 444444
seed-2-mt = 454444
seed-3-mt = 40
seed-4-mt = 50
seed-5-mt = 60
seed-6-mt = 70
seed-7-mt = 80
seed-8-mt = 90
SN.node[*].networkInterface.Radio.txPowerLevelUsed = 0
SN.wirelessChannel.printDebugInfo = true
SN.node[*].networkInterface.Radio.printDebugInfo = true

[Run 45]
description = "Run 45"
seed-0-mt = 10				# the seeds for each of the RNGs
seed-1-mt = 454545
seed-2-mt = 464545
seed-3-mt = 40
seed-4-mt = 50
seed-5-mt = 60
seed-6-mt = 70
seed-7-mt = 80
seed-8-mt = 90
SN.node[*].networkInterface.Radio.txPowerLevelUsed = 0
SN.wirelessChannel.printDebugInfo = true
SN.node[*].networkInterface.Radio.printDebugInfo = true

[Run 46]
description = "Run 46"
seed-0-mt = 10				# the seeds for each of the RNGs
seed-1-mt = 464646
seed-2-mt = 474646
seed-3-mt = 40
seed-4-mt = 50
seed-5-mt = 60
seed-6-mt = 70
seed-7-mt = 80
seed-8-mt = 90
SN.node[*].networkInterface.Radio.txPowerLevelUsed = 0
SN.wirelessChannel.printDebugInfo = true
SN.node[*].networkInterface.Radio.printDebugInfo = true

[Run 47]
description = "Run 47"
seed-0-mt = 10				# the seeds for each of the RNGs
seed-1-mt = 474747
seed-2-mt = 484747
seed-3-mt = 40
seed-4-mt = 50
seed-5-mt = 60
seed-6-mt = 70
seed-7-mt = 80
seed-8-mt = 90
SN.node[*].networkInterface.Radio.txPowerLevelUsed = 0
SN.wirelessChannel.printDebugInfo = true
SN.node[*].networkInterface.Radio.printDebugInfo = true

[Run 48]
description = "Run 48"
seed-0-mt = 10				# the seeds for each of the RNGs
seed-1-mt = 484848
seed-2-mt = 494848
seed-3-mt = 40
seed-4-mt = 50
seed-5-mt = 60
seed-6-mt = 70
seed-7-mt = 80
seed-8-mt = 90
SN.node[*].networkInterface.Radio.txPowerLevelUsed = 0
SN.wirelessChannel.printDebugInfo = true
SN.node[*].networkInterface.Radio.printDebugInfo = true

[Run 49]
description = "Run 49"
seed-0-mt = 10				# the seeds for each of the RNGs
seed-1-mt = 494949
seed-2-mt = 504949
seed-3-mt = 40
seed-4-mt = 50
seed-5-mt = 60
seed-6-mt = 70
seed-7-mt = 80
seed-8-mt = 90
SN.node[*].networkInterface.Radio.txPowerLevelUsed = 0
SN.wirelessChannel.printDebugInfo = true
SN.node[*].networkInterface.Radio.printDebugInfo = true

[Run 50]
description = "Run 50"
seed-0-mt = 10				# the seeds for each of the RNGs
seed-1-mt = 505050
seed-2-mt = 515050
seed-3-mt = 40
seed-4-mt = 50
seed-5-mt = 60
seed-6-mt = 70
seed-7-mt = 80
seed-8-mt = 90
SN.node[*].networkInterface.Radio.txPowerLevelUsed = 0
SN.wirelessChannel.printDebugInfo = true
SN.node[*].networkInterface.Radio.printDebugInfo = true
