

[General]
preload-ned-files = *.ned @../../nedfiles.lst
include ../Parameter_Include_Files/general_and_RNGs.ini

output-vector-file = Castalia-statistics.vec
output-scalar-file = Castalia-statistics.sca

sim-time-limit = 600s

[Cmdenv]
include ../Parameter_Include_Files/omnet_cmdenv_reporting.ini

[Parameters]

include ../Parameter_Include_Files/BackwardCompatibility.ini

SN.debugInfoFilename = "Castalia-Debug.txt"

include ../Parameter_Include_Files/resourceMgr_2AAbatteries.ini
include ../Parameter_Include_Files/nodeSensorDevMgr_Accelerometer.ini
include ../Parameter_Include_Files/WChannel/Additive_Interference_Model/WChannel_Realistic.ini
include ../Parameter_Include_Files/Radio/TelosB_CC2420/radio_CC2420.ini
include ./MAC_Tunable.ini
include ../Parameter_Include_Files/Routing_simpleTree.ini

SN.node[*].networkInterface.MAC.dutyCycle = 1
SN.node[*].networkInterface.MAC.listenInterval = 100

SN.node[*].appModuleName = "BridgeTest_ApplicationModule"
SN.node[*].nodeApplication.applicationID = "bridgeTest"
SN.node[*].nodeApplication.printDebugInfo = false
SN.node[*].nodeApplication.priority = 1

SN.node[*].nodeApplication.maxAppPacketSize = 70    #in bytes
SN.node[*].nodeApplication.packetHeaderOverhead = 8 #in bytes

SN.node[*].nodeApplication.reportTreshold = 10
SN.node[*].nodeApplication.reportInterval = 1000
SN.node[*].nodeApplication.broadcastReports = false

SN.numPhysicalProcesses = 1
SN.physicalProcessModuleName = "CarsPhysicalProcess"
SN.physicalProcess[0].printDebugInfo = false
SN.physicalProcess[0].description = "Cars"
SN.physicalProcess[0].max_num_cars = 5
SN.physicalProcess[0].car_speed = 16
SN.physicalProcess[0].car_value = 30
SN.physicalProcess[0].car_interarrival = 60

SN.physicalProcess[0].point1_x_coord = 0
SN.physicalProcess[0].point1_y_coord = 5
SN.physicalProcess[0].point2_x_coord = 40
SN.physicalProcess[0].point2_y_coord = 5

SN.field_x = 40
SN.field_y = 10

SN.numNodes = 7
SN.deploymentType = 3

SN.node[0].xCoor = 20
SN.node[0].yCoor = 5
SN.node[0].nodeApplication.isSink = true

SN.node[1].xCoor = 0
SN.node[1].yCoor = 0
SN.node[1].nodeApplication.isSink = false

SN.node[2].xCoor = 0
SN.node[2].yCoor = 10
SN.node[2].nodeApplication.isSink = false

SN.node[3].xCoor = 20
SN.node[3].yCoor = 0
SN.node[3].nodeApplication.isSink = false

SN.node[4].xCoor = 20
SN.node[4].yCoor = 10
SN.node[4].nodeApplication.isSink = false

SN.node[5].xCoor = 40
SN.node[5].yCoor = 0
SN.node[5].nodeApplication.isSink = false

SN.node[6].xCoor = 40
SN.node[6].yCoor = 10
SN.node[6].nodeApplication.isSink = false


[Run 1]
seed-1-mt = 85614
seed-2-mt = 58878
